! Originially from Ghani, A., Poinsot, T., Gicquel, L., & Staffelbach, G. (2015). 
! LES of longitudinal and transverse self-excited combustion instabilities in a 
! bluff-body stabilized turbulent premixed flame. Combustion and Flame, 162(11), 4075-4083.
!
! With the update as noted in Comer, A. L., Sardeshmukh, S. V., Rankin, B. A., Harvazinski, 
! M. E., & Sankaran, V. (2017). Grid Convergence Studies of Bluff Body Stabilized Turbulent 
! Premixed Combustion. In 55th AIAA Aerospace Sciences Meeting (p. 0377).


ELEMENTS
C O H N
END

SPECIES
C3H8 CO CO2 H2O N2 O2
END

TRANS ALL
C3H8               2   266.800     4.982     0.000     0.000     1.000          
CO                 1    98.100     3.650     0.000     1.950     1.800          
CO2                1   244.000     3.763     0.000     2.650     2.100          
H2O                2   572.400     2.605     1.844     0.000     4.000          
N2                 1    97.530     3.621     0.000     1.760     4.000          
O2                 1   107.400     3.458     0.000     1.600     3.800          
END

REACTIONS
C3H8+3.5O2=>3CO+4H2O           2.0E12 0 3.30E4
  FORD /C3H8 0.9028/
  FORD /O2 0.6855/
CO+0.5O2<=>CO2                 4.5E10 0 1.20E3
END
